/*--------------------------------*- C++ -*----------------------------------*\
  =========                 |
  \\      /  F ield         | OpenFOAM: The Open Source CFD Toolbox
   \\    /   O peration     | Website:  https://openfoam.org
    \\  /    A nd           | Version:  11
     \\/     M anipulation  |
\*---------------------------------------------------------------------------*/
FoamFile
{
    format      ascii;
    class       dictionary;
    location    "constant";
    object      cloudProperties;
}
// * * * * * * * * * * * * * * * * * * * * * * * * * * * * * * * * * * * * * //

//type        cloud;

solution
{
    active	    true;
    coupled         true;
    transient       yes;
    cellValueSourceCorrection off;
    //calcFrequency   1;
    maxCo           0.05;
    //maxTrackTime    0.01;

    interpolationSchemes
    {
        rho         cell;
        U           cellPoint;
        muc          cell;
	p		cell;
       // alpha.water       cell;
    }

    //averagingMethod dual;

    integrationSchemes
    {
        U               Euler;
    }

    sourceTerms
    {
        //resetOnStartup	false;
	schemes
        {
            U           semiImplicit 1;
        }
    }
}

constantProperties
{
    rho0            2650;
}

subModels
{
    particleForces
    {
        //ErgunWenYuDrag
        //{
        //    alphac alpha.water;
        //}
	sphereDrag;
        gravity;
    }

    injectionModels
    {
	p1
	{
            type            patchInjection;
            massTotal       0.0004769;
            //massFlowRate       0.004769;
            SOI             501;
            parcelBasisType mass;
	    //nParticle	    1;
	    //uniformParcelSize	nParticle;
            patch           inlet;
            duration        2;
            parcelsPerSecond 1375;
            //velocityType    zeroGradient;
	    U0              (0.08566 0 0);
            flowRateProfile constant 1;
	    sizeDistribution
	    {
		type	fixedValue;
		fixedValueDistribution
		{
			value	0.5e-3;
		}
	    }
	}

	p2
        {
            type            patchInjection;
            massTotal       0.0002265;
            //massFlowRate       0.0002265;
            SOI             501;
            parcelBasisType mass;
            uniformParcelSize  nParticle;
	    patch           inlet;
            duration        2;
            parcelsPerSecond 5225;
            U0              (0.08566 0 0);
            flowRateProfile constant 1;
            sizeDistribution
            {
                type    fixedValue;
                fixedValueDistribution
                {
                        value   0.25e-3;
                }
            }
        }
        p3
        {
            type            patchInjection;
            massTotal       0.00003863;
            //massFlowRate       0.0003863;
            SOI             501;
            parcelBasisType mass;
	    uniformParcelSize   nParticle;
            patch           inlet;
            duration        2;
            parcelsPerSecond 4125;
            U0              (0.08566 0 0);
            flowRateProfile constant 1;
            sizeDistribution
            {
                type    fixedValue;
                fixedValueDistribution
                {
                        value   0.15e-3;
                }
            }
        }
        p4
        {
            type            patchInjection;
            massTotal       0.00001015;
            //massFlowRate       0.0001015;
            SOI             501;
            parcelBasisType mass;
	    uniformParcelSize   nParticle;
            patch           inlet;
            duration        2;
            parcelsPerSecond 2725;
            U0              (0.08566 0 0);
            flowRateProfile constant 1;
            sizeDistribution
            {
                type    fixedValue;
                fixedValueDistribution
                {
                        value   0.11e-3;
                }
            }
        }
        p5
        {
            type            patchInjection;
            massTotal       1.931e-6;
            //massFlowRate       1.931e-5;
            SOI             501;
            parcelBasisType mass;
	    uniformParcelSize   nParticle;
            patch           inlet;
            duration        2;
            parcelsPerSecond 1650;
            U0              (0.08566 0 0);
            flowRateProfile constant 1;
            sizeDistribution
            {
                type    fixedValue;
                fixedValueDistribution
                {
                        value   0.075e-3;
                }
            }
        }
        p6
        {
            type            patchInjection;
            massTotal       6.817e-7;
            //massFlowRate       6.817e-6;
            SOI             501;
            parcelBasisType mass;
	    uniformParcelSize   nParticle;
            patch           inlet;
            duration        2;
            parcelsPerSecond 1650;
            U0              (0.08566 0 0);
            flowRateProfile constant 1;
            sizeDistribution
            {
                type    fixedValue;
                fixedValueDistribution
                {
                        value   0.053e-3;
                }
            }
        }
        p7
        {
            type            patchInjection;
            massTotal       1.057e-7;
            //massFlowRate       1.057e-6;
            SOI             501;
            parcelBasisType mass;
	    uniformParcelSize   nParticle;
            patch           inlet;
            duration        2;
            parcelsPerSecond 2200;
            U0              (0.08566 0 0);
            flowRateProfile constant 1;
            sizeDistribution
            {
                type    fixedValue;
                fixedValueDistribution
                {
                        value   0.0326e-3;
                }
            }
        }
        p8
        {
            type            patchInjection;
            massTotal       5.817e-8;
            //massFlowRate       5.817e-7;
            SOI             501;
            parcelBasisType mass;
	    uniformParcelSize   nParticle;
            patch           inlet;
            duration        2;
            parcelsPerSecond 2200;
            U0              (0.08566 0 0);
            flowRateProfile constant 1;
            sizeDistribution
            {
                type    fixedValue;
                fixedValueDistribution
                {
                        value   0.0212e-3;
                }
            }
        }
        p9
        {
            type            patchInjection;
            massTotal       5.962e-9;
            //massFlowRate       5.962e-8;
            SOI             501;
            parcelBasisType mass;
	    uniformParcelSize   nParticle;
            patch           inlet;
            duration        2;
            parcelsPerSecond 1100;
            U0              (0.08566 0 0);
            flowRateProfile constant 1;
            sizeDistribution
            {
                type    fixedValue;
                fixedValueDistribution
                {
                        value   0.0125e-3;
                }
            }
        }
        p10
        {
            type            patchInjection;
            massTotal       1.614e-9;
            //massFlowRate       1.614e-8;
            SOI             501;
            parcelBasisType mass;
	    uniformParcelSize   nParticle;
            patch           inlet;
            duration        2;
            parcelsPerSecond 825;
            U0              (0.08566 0 0);
            flowRateProfile constant 1;
            sizeDistribution
            {
                type    fixedValue;
                fixedValueDistribution
                {
                        value   0.0089e-3;
                }
            }
        }
        p11
        {
            type            patchInjection;
            massTotal       1.0002e-9;
            //massFlowRate       1.0002e-8;
            SOI             501;
            parcelBasisType mass;
	    uniformParcelSize   nParticle;
            patch	    inlet;
            duration        2;
            parcelsPerSecond 1375;
            U0              (0.08566 0 0);
            flowRateProfile constant 1;
            sizeDistribution
            {
                type    fixedValue;
                fixedValueDistribution
                {
                        value   0.0064e-3;
                }
            }
        }
        p12
        {
            type            patchInjection;
            massTotal       1.213e-10;
            //massFlowRate       1.213e-9;
            SOI             501;
            parcelBasisType mass;
	    uniformParcelSize   nParticle;
            patch           inlet;
            duration        2;
            parcelsPerSecond 550;
            U0              (0.08566 0 0);
            flowRateProfile constant 1;
            sizeDistribution
            {
                type    fixedValue;
                fixedValueDistribution
                {
                        value   0.0043e-3;
                }
            }
        }
        p13
        {
            type            patchInjection;
            massTotal       1.9197e-10;
            //massFlowRate       1.9197e-9;
            SOI             501;
            parcelBasisType mass;
	    uniformParcelSize   nParticle;
            patch	    inlet;
            duration        2;
            parcelsPerSecond 1925;
            U0              (0.08566 0 0);
            flowRateProfile constant 1;
            sizeDistribution
            {
                type    fixedValue;
                fixedValueDistribution
                {
                        value   0.0033e-3;
                }
            }
        }
        p14
        {
            type            patchInjection;
            massTotal       1.0059e-11;
            //massFlowRate       1.0059e-10;
            SOI             501;
            parcelBasisType mass;
	    uniformParcelSize nParticle;
            patch           inlet;
            duration        2;
            parcelsPerSecond 1650;
            U0              (0.08566 0 0);
            flowRateProfile constant 1;
            sizeDistribution
            {
                type    fixedValue;
                fixedValueDistribution
                {
                        value   0.0013e-3;
                }
            }
        }
  
    }

    dispersionModel none;

    patchInteractionModel localInteraction;

    localInteractionCoeffs
    {
        patches
        (
            free_surface
            {
                type none;
            }
            walls
            {
                type rebound;
                e    0.97;
                mu   0.09;
            }
            inlet
            {
                type rebound;
                e    0.97;
                mu   0.09;
            }
            outlet
            {
                type escape;
            }
	    trap_surface
	    {
		type rebound;
		e	0.97;
		mu	0.09;
	    }
        );
    }

    heatTransferModel none;

    surfaceFilmModel none;
/*
    packingModel implicit;

    explicitCoeffs
    {
        particleStressModel
        {
            type HarrisCrighton;
            alphaPacked 0.6;
            pSolid 10.0;
            beta 2.0;
            eps 1.0e-7;
        }
        correctionLimitingMethod
        {
            type absolute;
            e 0.9;
        }
    }

    implicitCoeffs
    {
        alphaMin 0.0001;
        rhoMin 1.0;
        applyLimiting true;
        applyGravity true;
        particleStressModel
        {
            type HarrisCrighton;
            alphaPacked 0.6;
            pSolid 5.0;
            beta 2.0;
            eps 1.0e-2;
        }
    }
*/
    //dampingModel none;

    //isotropyModel stochastic;

    collisionModel	none;
/*
    stochasticCoeffs
    {
        timeScaleModel
        {
            type isotropic;
            alphaPacked 0.6;
            e 0.9;
        }
    }
*/
    stochasticCollisionModel none;

    radiation off;
}


cloudFunctions
{
        patchPost1
        {
                type particlePostProcessing;
                enabled true;
                writeControl writeTime;
                log yes;
                clouds (cloud);
                maxStoredParcels 550000;
                patches (outlet);

        }


}


// ************************************************************************* //
