/*--------------------------------*- C++ -*----------------------------------*\
| =========                 |                                                 |
| \\      /  F ield         | OpenFOAM: The Open Source CFD Toolbox           |
|  \\    /   O peration     | Version:  v2306                                 |
|   \\  /    A nd           | Website:  www.openfoam.com                      |
|    \\/     M anipulation  |                                                 |
\*---------------------------------------------------------------------------*/
FoamFile
{
    version     2.0;
    format      ascii;
    class       dictionary;
    object      blockMeshDict;
}
// * * * * * * * * * * * * * * * * * * * * * * * * * * * * * * * * * * * * * //

scale   1;

vertices
(

    (-2.25 -2.25 -0.75  )
    (-2.25 0.75 -0.75  )
    (-2.25 0.75 0.75  )
    (-2.25 -2.25 0.75  )

    (1.75 -2.25 -0.75  )
    (1.75 0.75 -0.75  )
    (1.75 0.75 0.75  )
    (1.75 -2.25 0.75  )

);

blocks
(
    hex (0 1 2 3 4 5 6 7) (252 123 338) simpleGrading (1 1 1)
);

edges
(
);

boundary
(
    inlet
    {
        type patch;
        faces
        (
            (4 5 6 7)
        );
    }

    outlet
    {
        type patch;
        faces
        (
            (0 1 2 3)
        );
    }

    top
    {
        type patch;
        faces
        (
            (1 2 6 5)
        );
    }
    bottom
    {
        type patch;
        faces
        (
            (0 3 7 4)
        );
    }

    walls
    {
        type patch;
        faces
        (
            (0 1 5 4)
	    (2 6 7 3)
        );
    }

//    defaultPatch
//    {
//        name default; // optional
//        type patch;
//    }

);

// ************************************************************************* //
