/*--------------------------------*- C++ -*----------------------------------*\
| =========                 |                                                |
| \\      /  F ield         | cfMesh: A library for mesh generation          | 
|  \\    /   O peration     |                                                |
|   \\  /    A nd           | Author: Franjo Juretic                         | 
|    \\/     M anipulation  | E-mail: franjo.juretic@c-fields.com            |
\*---------------------------------------------------------------------------*/

FoamFile
{
    version   2.0;
    format    ascii;
    class     dictionary;
    location  "system";
    object    meshDict;
}

// * * * * * * * * * * * * * * * * * * * * * * * * * * * * * * * * * * * * * //

surfaceFile "fullGeoScaled.fms";


//maxCellSize 0.05;
maxCellSize 0.0225;
//maxCellSize	0.03545;
//nCellsBetweenLevels	1;
//nAdditionalLayersOfRefinementNearBoundary 1;
enforceGeometryConstraints 0;
//decomposePolyhedraIntoTetsAndPyrs 1;
//boundaryCellSize 0.01;

//minCellSize	0.005;

//boundaryCellSizeRefinementThickness	0.1;



surfaceMeshRefinement
{
        hoodGroup
        {
                surfaceFile     "fullHoodScaled.stl";
                //cellSize        0.0025;
                additionalRefinementLevels 4;
                refinementThickness   0.00025;
        }


	fuseLower
	{
		surfaceFile	"fuseLowerScaled.stl";
		additionalRefinementLevels	2;
		refinementThickness	0.00025;
	}

	chimneyTop
	{
		surfaceFile	"chimneyTopScaled.stl";
		additionalRefinementLevels	4;
		refinementThickness	0.00025;
		
	}
	basin
	{
		surfaceFile	"basinScaled.stl";
		additionalRefinementLevels	3;
		refinementThickness		0.00025;
	}
/*
        trap_surface
        {
                surfaceFile	"trap_surfaceScaled.stl";
		//additionalRefinementLevels 1;
                cellSize 0.005;
        }

        outlet
        {
                
		surfaceFile	"outletScaled.stl";
		cellSize 0.005;
        }
        inlet
        {
                surfaceFile	"inletScaled.stl";
		cellSize 0.005;
        }

	free_surface
	{
		surfaceFile	"free_surfaceScaled.stl";
		additionalRefinementLevels	1;

	}

*/
}



localRefinement
{
 	trap_surface
	{
		additionalRefinementLevels 2;
		//cellSize 0.005;
	}

	allCut
	{
		
		additionalRefinementLevels 1;
		//cellSize 0.005;
	}
	outlet
	{
		additionalRefinementLevels 1;
		//cellSize 0.005;
	}
	inlet
	{
		additionalRefinementLevels 2;
		//cellSize 0.005;
	}
}




edgeMeshRefinement
{
    
	
    edge1
    {
        edgeFile "80Deg_featureEdges.vtk";
        additionalRefinementLevels 3;
        refinementThickness 0.0025;
	//cellSize	0.0025;
	//refinementThickness	0.005;
    }



}



boundaryLayers
{

    patchBoundaryLayers
    {
        
	outlet
	{
	    nLayers		3;
	    OuterLayers        2;
            outerThicknessRatio 1.5;
            thicknessRatio    1.15;

            firstLayerThickness 1e-4;
            allowDiscontinuity  0;


	}	
	    
	trap_surface
        {
            nLayers           3;

	    nOuterLayers	2;
	    outerThicknessRatio	1.5;
            thicknessRatio    1.15;

            firstLayerThickness 1e-4;
	    allowDiscontinuity	0;
	    //trying to set yplus

	    //L	1.0;
	    //U	1.0;
	    //mu	0.001;
	    //rho	997.0;
	    //desiredYPlus	50.0;
	    //nLayers	5;
	    //thicknessRatio	1.15;



        }

    	allCut
        {
            nLayers           3;

            nOuterLayers        2;
            outerThicknessRatio 1.5;
            thicknessRatio    1.15;

            firstLayerThickness 1e-4;
            allowDiscontinuity	0;

	    //L   1.0;
            //U   1.0;
            //mu  0.001;
            //rho 997.0;
            //desiredYPlus        50.0;
            //nLayers     5;
            //thicknessRatio      1.15;



        }


    }
}

renameBoundary
{
    defaultName		walls;
    defaultType		wall;

    newPatchNames
    {
        inlet
        {
            newName     inlet;
            type     patch;
        }

        outlet
        {
            newName     outlet;
            type     patch;
        }
	allCut
	{
	    newName	walls;
	    type	wall;
	}
	trap_surface
	{
	    newName	trap_surface;
	    type	wall;
	}
	free_surface
	{
	    newName	free_surface;
	    type	symmetry;
	}
    }
}

meshQualitySettings
{
	maxNonOrthogonality 82;
	
	maxSkewness 4;
	
	//maxInternalSkewness 4;

	//minTetQuality 0.8;

	//minDeterminant 0.001;
	
//	minFaceTriangleTwist 1;

//	minFaceTwist	1;

	surfaceMapping
	{
		maxNumIterations 1000;
		minRelDisp	 0.001;
	}

	surfacePremapping
	{
		maxNumIterations 1000;
		minRelDisp	 0.001;
	}
	surfaceOptimization
	{
		maxNumIterations	100;
		minRelDisp		0.001;
	}
	volumeOptimization
	{
		maxNumIterations	15;
		minRelDisp		0.001;
	}

}
               

workflowControls
{
	//stopAfter surfaceProjection;
	//restartFromLatestStep	1;
}


// ************************************************************************* //
